New Loadshape.Shape_1 npts=288 interval=0.0833 mult=(file=Load1_5min.csv) useactual=false
New Loadshape.Shape_2 npts=288 interval=0.0833 mult=(file=Load2_5min.csv) useactual=false
New Loadshape.Shape_3 npts=288 interval=0.0833 mult=(file=Load3_5min.csv) useactual=false
New Loadshape.Shape_4 npts=288 interval=0.0833 mult=(file=Load4_5min.csv) useactual=false
New Loadshape.Shape_5 npts=288 interval=0.0833 mult=(file=Load5_5min.csv) useactual=false
New Loadshape.Shape_6 npts=288 interval=0.0833 mult=(file=Load6_5min.csv) useactual=false
New Loadshape.Shape_7 npts=288 interval=0.0833 mult=(file=Load7_5min.csv) useactual=false
New Loadshape.Shape_8 npts=288 interval=0.0833 mult=(file=Load8_5min.csv) useactual=false
New Loadshape.Shape_9 npts=288 interval=0.0833 mult=(file=Load9_5min.csv) useactual=false
New Loadshape.Shape_10 npts=288 interval=0.0833 mult=(file=Load10_5min.csv) useactual=false
New Loadshape.Shape_11 npts=288 interval=0.0833 mult=(file=Load11_5min.csv) useactual=false
New Loadshape.Shape_12 npts=288 interval=0.0833 mult=(file=Load12_5min.csv) useactual=false
New Loadshape.Shape_13 npts=288 interval=0.0833 mult=(file=Load13_5min.csv) useactual=false
New Loadshape.Shape_14 npts=288 interval=0.0833 mult=(file=Load14_5min.csv) useactual=false
New Loadshape.Shape_15 npts=288 interval=0.0833 mult=(file=Load15_5min.csv) useactual=false
New Loadshape.Shape_16 npts=288 interval=0.0833 mult=(file=Load16_5min.csv) useactual=false
New Loadshape.Shape_17 npts=288 interval=0.0833 mult=(file=Load17_5min.csv) useactual=false
New Loadshape.Shape_18 npts=288 interval=0.0833 mult=(file=Load18_5min.csv) useactual=false
New Loadshape.Shape_19 npts=288 interval=0.0833 mult=(file=Load19_5min.csv) useactual=false
New Loadshape.Shape_20 npts=288 interval=0.0833 mult=(file=Load20_5min.csv) useactual=false
New Loadshape.Shape_21 npts=288 interval=0.0833 mult=(file=Load21_5min.csv) useactual=false
New Loadshape.Shape_22 npts=288 interval=0.0833 mult=(file=Load22_5min.csv) useactual=false
New Loadshape.Shape_23 npts=288 interval=0.0833 mult=(file=Load23_5min.csv) useactual=false
